opendss_network/Loads_1kva.dss
New  load.consumidor_668    phases=1  model=1 bus=barra3.2.4       kv=0.22   kva=1   pf=0.9   conn=wye
New  load.consumidor_671    phases=3  model=1 bus=barra4.1.2.3.4   kv=0.380  kva=1   pf=0.9   conn=wye
New  load.consumidor_649    phases=1  model=1 bus=barra4.2.4       kv=0.22   kva=1   pf=0.9   conn=wye
New  load.consumidor_640    phases=1  model=1 bus=barra6.1.4       kv=0.22   kva=1   pf=0.9   conn=wye
New  load.consumidor_640A   phases=3  model=1 bus=barra6.1.2.3.4   kv=0.380  kva=1   pf=0.9   conn=wye
New  load.consumidor_618    phases=1  model=1 bus=barra6.1.4       kv=0.22   kva=1   pf=0.9   conn=wye
New  load.consumidor_656    phases=3  model=1 bus=barra6.1.2.3.4   kv=0.380  kva=1   pf=0.9   conn=wye
New  load.consumidor_615    phases=1  model=1 bus=barra7.3.4       kv=0.22   kva=1   pf=0.9   conn=wye
New  load.consumidor_569    phases=1  model=1 bus=barra8.1.4       kv=0.22   kva=1   pf=0.9   conn=wye
New  load.consumidor_567    phases=1  model=1 bus=barra9.2.4       kv=0.22   kva=1   pf=0.9   conn=wye
New  load.consumidor_564    phases=1  model=1 bus=barra10.2.4      kv=0.22   kva=1   pf=0.9   conn=wye
New  load.consumidor_555    phases=3  model=1 bus=barra11.1.2.3.4  kv=0.380  kva=1   pf=0.9   conn=wye
New  load.consumidor_709    phases=3  model=1 bus=barra13.1.2.3.4  kv=0.380  kva=1   pf=0.9   conn=wye
New  load.consumidor_719    phases=1  model=1 bus=barra13.1.4      kv=0.22   kva=1   pf=0.9   conn=wye
New  load.consumidor_729    phases=2  model=1 bus=barra14.1.3.4    kv=0.380  kva=1   pf=0.9   conn=wye
New  load.consumidor_745    phases=1  model=1 bus=barra14.2.4      kv=0.22   kva=1   pf=0.9   conn=wye
New  load.consumidor_195    phases=3  model=1 bus=barra15.1.2.3.4  kv=0.380  kva=1   pf=0.9   conn=wye
New  load.consumidor_177    phases=1  model=1 bus=barra15.3.4      kv=0.22   kva=1   pf=0.9   conn=wye
New  load.consumidor_165    phases=3  model=1 bus=barra16.1.2.3.4  kv=0.380  kva=1   pf=0.9   conn=wye
New  load.consumidor_149    phases=3  model=1 bus=barra17.1.2.3.4  kv=0.380  kva=1   pf=0.9   conn=wye
New  load.consumidor_137    phases=1  model=1 bus=barra17.1.4      kv=0.22   kva=1   pf=0.9   conn=wye
New  load.consumidor_125    phases=1  model=1 bus=barra17.2.4      kv=0.22   kva=1   pf=0.9   conn=wye
New  load.consumidor_125A   phases=1  model=1 bus=barra17.3.4      kv=0.22   kva=1   pf=0.9   conn=wye
New  load.consumidor_251    phases=3  model=1 bus=barra38.1.2.3.4  kv=0.380  kva=1   pf=0.9   conn=wye
New  load.consumidor_258    phases=1  model=1 bus=barra38.3.4      kv=0.22   kva=1   pf=0.9   conn=wye
New  load.consumidor_270    phases=3  model=1 bus=barra39.1.2.3.4  kv=0.380  kva=1   pf=0.9   conn=wye
New  load.consumidor_678B   phases=3  model=1 bus=barra40.1.2.3.4  kv=0.380  kva=1   pf=0.9   conn=wye
New  load.consumidor_671A   phases=3  model=1 bus=barra43.1.2.3.4  kv=0.380  kva=1   pf=0.9   conn=wye
New  load.consumidor_310    phases=3  model=1 bus=barra43.1.2.3.4  kv=0.380  kva=1   pf=0.9   conn=wye
New  load.consumidor_322    phases=3  model=1 bus=barra43.1.2.3.4  kv=0.380  kva=1   pf=0.9   conn=wye
New  load.consumidor_342    phases=3  model=1 bus=barra44.1.2.3.4  kv=0.380  kva=1   pf=0.9   conn=wye
New  load.consumidor_364    phases=3  model=1 bus=barra44.1.2.3.4  kv=0.380  kva=1   pf=0.9   conn=wye
New  load.consumidor_349    phases=1  model=1 bus=barra44.1.4      kv=0.22   kva=1   pf=0.9   conn=wye
New  load.consumidor_364A   phases=3  model=1 bus=barra45.1.2.3.4  kv=0.380  kva=1   pf=0.9   conn=wye
New  load.consumidor_377    phases=3  model=1 bus=barra45.1.2.3.4  kv=0.380  kva=1   pf=0.9   conn=wye
New  load.consumidor_697    phases=1  model=1 bus=barra18.1.4      kv=0.22   kva=1   pf=0.9   conn=wye
New  load.consumidor_673    phases=3  model=1 bus=barra19.1.2.3.4  kv=0.380  kva=1   pf=0.9   conn=wye
New  load.consumidor_685    phases=1  model=1 bus=barra19.2.4      kv=0.22   kva=1   pf=0.9   conn=wye
New  load.consumidor_678    phases=1  model=1 bus=barra19.3.4      kv=0.22   kva=1   pf=0.9   conn=wye
New  load.consumidor_678A   phases=1  model=1 bus=barra19.1.4      kv=0.22   kva=1   pf=0.9   conn=wye
New  load.consumidor_643    phases=1  model=1 bus=barra20.2.4      kv=0.22   kva=1   pf=0.9   conn=wye
New  load.consumidor_652    phases=1  model=1 bus=barra20.2.4      kv=0.22   kva=1   pf=0.9   conn=wye
New  load.consumidor_640_1  phases=1  model=1 bus=barra20.3.4      kv=0.22   kva=1   pf=0.9   conn=wye
New  load.consumidor_640_1A phases=1  model=1 bus=barra20.3.4      kv=0.22   kva=1   pf=0.9   conn=wye
New  load.consumidor_575    phases=3  model=1 bus=barra22.1.2.3.4  kv=0.380  kva=1   pf=0.9   conn=wye
New  load.consumidor_5671   phases=1  model=1 bus=barra22.1.4      kv=0.22   kva=1   pf=0.9   conn=wye
New  load.consumidor_570    phases=1  model=1 bus=barra23.2.4      kv=0.22   kva=1   pf=0.9   conn=wye
New  load.consumidor_553    phases=1  model=1 bus=barra24.2.4      kv=0.22   kva=1   pf=0.9   conn=wye
New  load.consumidor_539    phases=1  model=1 bus=barra24.3.4      kv=0.22   kva=1   pf=0.9   conn=wye
New  load.consumidor_548    phases=1  model=1 bus=barra25.1.4      kv=0.22   kva=1   pf=0.9   conn=wye
New  load.consumidor_534    phases=1  model=1 bus=barra25.2.4      kv=0.22   kva=1   pf=0.9   conn=wye      
New  load.consumidor_110    phases=3  model=1 bus=barra26.1.2.3.4  kv=0.380  kva=1   pf=0.9   conn=wye
New  load.consumidor_101    phases=1  model=1 bus=barra26.1.4      kv=0.22   kva=1   pf=0.9   conn=wye
New  load.consumidor_101A   phases=1  model=1 bus=barra26.3.4      kv=0.22   kva=1   pf=0.9   conn=wye
New  load.consumidor_122    phases=3  model=1 bus=barra27.1.2.3.4  kv=0.380  kva=1   pf=0.9   conn=wye
New  load.consumidor_132    phases=1  model=1 bus=barra27.3.4      kv=0.22   kva=1   pf=0.9   conn=wye
New  load.consumidor_137A   phases=1  model=1 bus=barra27.3.4      kv=0.22   kva=1   pf=0.9   conn=wye
New  load.consumidor_158    phases=1  model=1 bus=barra28.1.4      kv=0.22   kva=1   pf=0.9   conn=wye
New  load.consumidor_172    phases=1  model=1 bus=barra28.3.4      kv=0.22   kva=1   pf=0.9   conn=wye
New  load.consumidor_180    phases=1  model=1 bus=barra28.3.4      kv=0.22   kva=1   pf=0.9   conn=wye
New  load.consumidor_147    phases=1  model=1 bus=barra29.2.4      kv=0.22   kva=1   pf=0.9   conn=wye
New  load.consumidor_181    phases=3  model=1 bus=barra30.1.2.3.4  kv=0.380  kva=1   pf=0.9   conn=wye
New  load.consumidor_195A   phases=3  model=1 bus=barra30.1.2.3.4  kv=0.380  kva=1   pf=0.9   conn=wye
New  load.consumidor_196    phases=1  model=1 bus=barra30.1.4      kv=0.22   kva=1   pf=0.9   conn=wye
New  load.consumidor_288    phases=3  model=1 bus=barra32.1.2.3.4  kv=0.380  kva=1   pf=0.9   conn=wye
New  load.consumidor_227    phases=1  model=1 bus=barra32.3.4      kv=0.22   kva=1   pf=0.9   conn=wye
New  load.consumidor_239    phases=1  model=1 bus=barra32.1.4      kv=0.22   kva=1   pf=0.9   conn=wye
New  load.consumidor_249    phases=1  model=1 bus=barra32.2.4      kv=0.22   kva=1   pf=0.9   conn=wye
New  load.consumidor_260    phases=3  model=1 bus=barra33.1.2.3.4  kv=0.380  kva=1   pf=0.9   conn=wye
New  load.consumidor_259    phases=1  model=1 bus=barra33.1.4      kv=0.22   kva=1   pf=0.9   conn=wye
New  load.consumidor_274    phases=1  model=1 bus=barra33.2.4      kv=0.22   kva=1   pf=0.9   conn=wye
New  load.consumidor_273    phases=1  model=1 bus=barra34.3.4      kv=0.22   kva=1   pf=0.9   conn=wye
New  load.consumidor_283    phases=1  model=1 bus=barra34.1.4      kv=0.22   kva=1   pf=0.9   conn=wye
New  load.consumidor_345    phases=3  model=1 bus=barra36.1.2.3.4  kv=0.380  kva=1   pf=0.9   conn=wye
New  load.consumidor_333    phases=1  model=1 bus=barra36.3.4      kv=0.22   kva=1   pf=0.9   conn=wye
New  load.consumidor_367    phases=1  model=1 bus=barra37.3.4      kv=0.22   kva=1   pf=0.9   conn=wye
New  load.consumidor_371    phases=1  model=1 bus=barra37.1.4      kv=0.22   kva=1   pf=0.9   conn=wye
New  load.consumidor_656A   phases=1  model=1 bus=barra46.2.4      kv=0.22   kva=1   pf=0.9   conn=wye
New  load.consumidor_660    phases=1  model=1 bus=barra46.3.4      kv=0.22   kva=1   pf=0.9   conn=wye
New  load.consumidor_648    phases=3  model=1 bus=barra36.1.2.3.4  kv=0.380  kva=1   pf=0.9   conn=wye
New  load.consumidor_581    phases=3  model=1 bus=barra48.1.2.3.4  kv=0.380  kva=1   pf=0.9   conn=wye
New  load.consumidor_593    phases=3  model=1 bus=barra48.1.2.3.4  kv=0.380  kva=1   pf=0.9   conn=wye
New  load.consumidor_566A   phases=3  model=1 bus=barra48.1.2.3.4  kv=0.380  kva=1   pf=0.9   conn=wye
New  load.consumidor_573    phases=1  model=1 bus=barra49.1.4      kv=0.22   kva=1   pf=0.9   conn=wye
New  load.consumidor_567A   phases=1  model=1 bus=barra49.1.4      kv=0.22   kva=1   pf=0.9   conn=wye
New  load.consumidor_578    phases=1  model=1 bus=barra49.2.4      kv=0.22   kva=1   pf=0.9   conn=wye
New  load.consumidor_562    phases=1  model=1 bus=barra49.3.4      kv=0.22   kva=1   pf=0.9   conn=wye
New  load.consumidor_552    phases=1  model=1 bus=barra49.2.4      kv=0.22   kva=1   pf=0.9   conn=wye
